523-Power System Stability analysis/hw6_523/type2_hw6/b_kundur_system.txt
 01/19/20 WSU Linli Jia         100.0  2020 W Kundur two-area system
BUS DATA FOLLOWS                            14 ITEMS
   1 Bus 1     HV  1  1  3 1.030   20.2      0.0      0.0    700.0   185.0     0.0  1.030     0.0     0.0   0.0    0.0        0
   2 Bus 2     HV  1  1  2 1.010   00.0      0.0      0.0    700.0   235.0     0.0  1.010     0.0     0.0   0.0    0.0        0
   3 Bus 3     LV  1  1  2 1.030   00.0      0.0      0.0    719.0   176.0     0.0  1.030     0.0     0.0   0.0    0.0        0
   4 Bus 4     LV  1  1  2 1.010   00.0      0.0      0.0    700.0   202.0     0.0  1.01      0.0     0.0   0.0    0.0        0
   5 Bus 5     HV  1  1  0 1.000   00.0      0.0      0.0      0.0     0.0     0.0  0.0       0.0     0.0   0.0    0.0        0
   6 Bus 6     HV  1  1  0 1.000   00.0      0.0      0.0      0.0     0.0     0.0  0.0       0.0     0.0   0.0    0.0        0
   7 Bus 7     TV  1  1  0 1.000   00.0    967.0    100.0      0.0     0.0     0.0  0.0       0.0     0.0   0.0    4.0        0
   8 Bus 8     TV  1  1  0 1.000   00.0      0.0      0.0      0.0     0.0     0.0  0.0       0.0     0.0   0.0    0.0        0
   9 Bus 9     TV  1  1  0 1.000   00.0   1767.0    100.0      0.0     0.0     0.0  0.0       0.0     0.0   0.0    4.0        0
  10 Bus 10    LV  1  1  0 1.000   00.0      0.0      0.0      0.0     0.0     0.0  0.0       0.0     0.0   0.0    0.0        0
  11 Bus 11    LV  1  1  0 1.000   00.0      0.0      0.0      0.0     0.0     0.0  0.0       0.0     0.0   0.0    0.0        0  
-999 
BRANCH DATA FOLLOWS                         10 ITEMS
   1    5  1  1 1 0  0.00000   0.01667     0.0000     0     0     0    0 0  0.0       0.0 0.0    0.0     0.0    0.0   0.0
   2    6  1  1 1 0  0.00000   0.01667     0.0000     0     0     0    0 0  0.0       0.0 0.0    0.0     0.0    0.0   0.0
   3   11  1  1 1 0  0.00000   0.01667     0.0000     0     0     0    0 0  0.0       0.0 0.0    0.0     0.0    0.0   0.0
   4   10  1  1 1 0  0.00000   0.01667     0.0000     0     0     0    0 0  0.0       0.0 0.0    0.0     0.0    0.0   0.0
   5    6  1  1 1 0  0.00250   0.02500     0.04375    0     0     0    0 0  0.0       0.0 0.0    0.0     0.0    0.0   0.0
   6    7  1  1 1 0  0.00100   0.01000     0.0175     0     0     0    0 0  0.0       0.0 0.0    0.0     0.0    0.0   0.0
   7    8  1  1 1 0  0.00367   0.03667     0.5775     0     0     0    0 0  0.0       0.0 0.0    0.0     0.0    0.0   0.0
   8    9  1  1 1 0  0.00550   0.05500     0.3850     0     0     0    0 0  0.0       0.0 0.0    0.0     0.0    0.0   0.0
   9   10  1  1 1 0  0.00100   0.01000     0.0175     0     0     0    0 0  0.0       0.0 0.0    0.0     0.0    0.0   0.0
  10   11  1  1 1 0  0.00250   0.02500     0.04375    0     0     0    0 0  0.0       0.0 0.0    0.0     0.0    0.0   0.0
-999
LOSS ZONES FOLLOWS                     1 ITEMS
  1 KUNDUR TWO AREAS SYSTEM
-99
INTERCHANGE DATA FOLLOWS                 1 ITEMS
 1    2 Bus 2     HV    0.0  999.99  IEEE14  IEEE 14 Bus Test Case
-9
TIE LINES FOLLOWS                     0 ITEMS
-999
END OF DATA
